/*---------------------------------------------------------------------------*\
| =========                 |                                                 |
| \\      /  F ield         | OpenFOAM: The Open Source CFD Toolbox           |
|  \\    /   O peration     | Version:  v2012                                 |
|   \\  /    A nd           | Website:  www.openfoam.com                      |
|    \\/     M anipulation  |                                                 |
\*---------------------------------------------------------------------------*/
Build  : _7bdb509494-20201222 OPENFOAM=2012
Arch   : "LSB;label=32;scalar=64"
Exec   : snappyHexMesh -overwrite
Date   : Jun 17 2022
Time   : 12:12:10
Host   : DESKTOP-P5PIKCI
PID    : 32703
I/O    : uncollated
Case   : /home/rmd/GitHub_OpenFOAM/thin_pipeflow_snappyHexMesh/snappy_pipe_potentialFoam
nProcs : 1
trapFpe: Floating point exception trapping enabled (FOAM_SIGFPE).
fileModificationChecking : Monitoring run-time modified files using timeStampMaster (fileModificationSkew 5, maxFileModificationPolls 20)
allowSystemOperations : Allowing user-supplied system call operations

// * * * * * * * * * * * * * * * * * * * * * * * * * * * * * * * * * * * * * //
Create time

Create mesh for time = 0

Read mesh in = 0.14 s

Overall mesh bounding box  : (-1 -1 -1) (1 1 41)
Relative tolerance         : 1e-06
Absolute matching distance : 4.20951e-05

Reading refinement surfaces.
Read refinement surfaces in = 0 s

Reading refinement shells.
--> FOAM Warning : 
    From Foam::shellSurfaces::shellSurfaces(const Foam::searchableSurfaces&, const Foam::dictionary&, bool)
    in file shellSurfaces/shellSurfaces.C at line 798
    Reading "/home/rmd/GitHub_OpenFOAM/thin_pipeflow_snappyHexMesh/snappy_pipe_potentialFoam/system/snappyHexMeshDict.castellatedMeshControls.refinementRegions" at line 148 to 155
    Not all entries in refinementRegions dictionary were used. The following entries were not used : 2(bottomPatch topPtchBox)
Read refinement shells in = 0 s

Setting refinement level of surface to be consistent with shells.
For geometry cylinder.stl detected 0 uncached triangles out of 476
Checked shell refinement in = 0 s

Reading features.
Read features in = 0 s


Determining initial surface intersections
-----------------------------------------

Edge intersection testing:
    Number of edges             : 124400
    Number of edges to retest   : 0
    Number of intersected edges : 0
Edge intersection testing:
    Number of edges             : 124400
    Number of edges to retest   : 124400
    Number of intersected edges : 4000
Calculated surface intersections in = 0.16 s

Initial mesh : cells:40000  faces:124400  points:44541
Cells per refinement level:
    0	40000

Adding patches for surface regions
----------------------------------

Patch Type                Region                        
----- ----                ------                        
cylinder:

3     wall                cylinder                      

Added patches in = 0 s

Edge intersection testing:
    Number of edges             : 124400
    Number of edges to retest   : 0
    Number of intersected edges : 4000
Selecting decompositionMethod none [1]

Refinement phase
----------------

Found point (0.05 0.05 1.5) in cell 2210 on processor 0

Surface refinement iteration 0
------------------------------

Marked for refinement due to surface intersection          : 6024 cells.
Marked for refinement due to curvature/regions             : 0 cells.
Determined cells to refine in = 0.04 s
Selected for refinement : 6024 cells (out of 40000)
Edge intersection testing:
    Number of edges             : 262940
    Number of edges to retest   : 177544
    Number of intersected edges : 15832
Refined mesh in = 0.4 s
After refinement surface refinement iteration 0 : cells:82168  faces:262940  points:98757
Cells per refinement level:
    0	33976
    1	48192

Surface refinement iteration 1
------------------------------

Marked for refinement due to surface intersection          : 23192 cells.
Marked for refinement due to curvature/regions             : 0 cells.
Determined cells to refine in = 0.02 s
Selected for refinement : 24816 cells (out of 82168)
Edge intersection testing:
    Number of edges             : 831512
    Number of edges to retest   : 739580
    Number of intersected edges : 63328
Refined mesh in = 1.54 s
After refinement surface refinement iteration 1 : cells:255880  faces:831512  points:319919
Cells per refinement level:
    0	32352
    1	37992
    2	185536

Surface refinement iteration 2
------------------------------

Marked for refinement due to surface intersection          : 32 cells.
Marked for refinement due to curvature/regions             : 456 cells.
Determined cells to refine in = 0.23 s
Selected for refinement : 528 cells (out of 255880)
Edge intersection testing:
    Number of edges             : 845144
    Number of edges to retest   : 22256
    Number of intersected edges : 65936
Refined mesh in = 0.82 s
After refinement surface refinement iteration 2 : cells:259576  faces:845144  points:326503
Cells per refinement level:
    0	32352
    1	37920
    2	185656
    3	3648

Surface refinement iteration 3
------------------------------

Marked for refinement due to surface intersection          : 0 cells.
Marked for refinement due to curvature/regions             : 1056 cells.
Determined cells to refine in = 0.24 s
Selected for refinement : 1624 cells (out of 259576)
Edge intersection testing:
    Number of edges             : 886568
    Number of edges to retest   : 64928
    Number of intersected edges : 70184
Refined mesh in = 0.9 s
After refinement surface refinement iteration 3 : cells:270944  faces:886568  points:346039
Cells per refinement level:
    0	32304
    1	38160
    2	186232
    3	7400
    4	6848

Surface refinement iteration 4
------------------------------

Marked for refinement due to surface intersection          : 0 cells.
Marked for refinement due to curvature/regions             : 1224 cells.
Determined cells to refine in = 0.27 s
Selected for refinement : 1680 cells (out of 270944)
Edge intersection testing:
    Number of edges             : 928256
    Number of edges to retest   : 77248
    Number of intersected edges : 74328
Refined mesh in = 0.94 s
After refinement surface refinement iteration 4 : cells:282704  faces:928256  points:364711
Cells per refinement level:
    0	32304
    1	38080
    2	186512
    3	9408
    4	13456
    5	2944

Surface refinement iteration 5
------------------------------

Marked for refinement due to surface intersection          : 0 cells.
Marked for refinement due to curvature/regions             : 1664 cells.
Determined cells to refine in = 0.29 s
Selected for refinement : 2328 cells (out of 282704)
Edge intersection testing:
    Number of edges             : 986840
    Number of edges to retest   : 110032
    Number of intersected edges : 81640
Refined mesh in = 1.05 s
After refinement surface refinement iteration 5 : cells:299000  faces:986840  points:391655
Cells per refinement level:
    0	32288
    1	38168
    2	186664
    3	9968
    4	18408
    5	13504

Surface refinement iteration 6
------------------------------

Marked for refinement due to surface intersection          : 0 cells.
Marked for refinement due to curvature/regions             : 432 cells.
Determined cells to refine in = 0.33 s
Selected for refinement : 768 cells (out of 299000)
Edge intersection testing:
    Number of edges             : 1005008
    Number of edges to retest   : 50256
    Number of intersected edges : 82456
Refined mesh in = 1 s
After refinement surface refinement iteration 6 : cells:304376  faces:1005008  points:399151
Cells per refinement level:
    0	32288
    1	38136
    2	186840
    3	10336
    4	20200
    5	16576

Surface refinement iteration 7
------------------------------

Marked for refinement due to surface intersection          : 0 cells.
Marked for refinement due to curvature/regions             : 48 cells.
Determined cells to refine in = 0.31 s
Selected for refinement : 64 cells (out of 304376)
Edge intersection testing:
    Number of edges             : 1006592
    Number of edges to retest   : 5888
    Number of intersected edges : 82568
Refined mesh in = 0.94 s
After refinement surface refinement iteration 7 : cells:304824  faces:1006592  points:399871
Cells per refinement level:
    0	32288
    1	38136
    2	186840
    3	10320
    4	20280
    5	16960

Surface refinement iteration 8
------------------------------

Marked for refinement due to surface intersection          : 0 cells.
Marked for refinement due to curvature/regions             : 0 cells.
Determined cells to refine in = 0.32 s
Selected for refinement : 0 cells (out of 304824)
Stopping refining since too few cells selected.


Removing mesh beyond surface intersections
------------------------------------------

Setting cellZones according to locationsInMesh:
Location : (0.05 0.05 1.5)
    cellZone : none

For cellZone none found point (0.05 0.05 1.5) in global region 1 out of 2 regions.
Keeping all cells containing inside points
Selected for keeping : 304824 cells.
Edge intersection testing:
    Number of edges             : 1006592
    Number of edges to retest   : 0
    Number of intersected edges : 82568
Setting cellZones according to locationsInMesh:
Location : (0.05 0.05 1.5)
    cellZone : none

For cellZone none found point (0.05 0.05 1.5) in global region 1 out of 2 regions.
Keeping all cells containing inside points
Selected for keeping : 215456 cells.
Edge intersection testing:
    Number of edges             : 746264
    Number of edges to retest   : 88392
    Number of intersected edges : 82568

Shell refinement iteration 0
----------------------------

Marked for refinement due to distance to explicit features : 0 cells.
Marked for refinement due to refinement shells             : 0 cells.
Determined cells to refine in = 2.56 s
Selected for internal refinement : 12040 cells (out of 215456)
Edge intersection testing:
    Number of edges             : 1005248
    Number of edges to retest   : 639952
    Number of intersected edges : 86832
Refined mesh in = 1.99 s
After refinement shell refinement iteration 0 : cells:299736  faces:1005248  points:408443
Cells per refinement level:
    0	11192
    1	20064
    2	203680
    3	8184
    4	24056
    5	32560

Shell refinement iteration 1
----------------------------

Marked for refinement due to distance to explicit features : 0 cells.
Marked for refinement due to refinement shells             : 0 cells.
Determined cells to refine in = 0.39 s
Selected for internal refinement : 1840 cells (out of 299736)
Edge intersection testing:
    Number of edges             : 1047056
    Number of edges to retest   : 127768
    Number of intersected edges : 89200
Refined mesh in = 1.34 s
After refinement shell refinement iteration 1 : cells:312616  faces:1047056  points:424427
Cells per refinement level:
    0	11192
    1	20064
    2	203496
    3	9256
    4	26000
    5	42608

Shell refinement iteration 2
----------------------------

Marked for refinement due to distance to explicit features : 0 cells.
Marked for refinement due to refinement shells             : 0 cells.
Determined cells to refine in = 0.38 s
Selected for internal refinement : 680 cells (out of 312616)
Edge intersection testing:
    Number of edges             : 1062344
    Number of edges to retest   : 48464
    Number of intersected edges : 89680
Refined mesh in = 1.3 s
After refinement shell refinement iteration 2 : cells:317376  faces:1062344  points:430179
Cells per refinement level:
    0	11192
    1	20064
    2	203448
    3	9600
    4	25728
    5	47344

Shell refinement iteration 3
----------------------------

Marked for refinement due to distance to explicit features : 0 cells.
Marked for refinement due to refinement shells             : 0 cells.
Determined cells to refine in = 0.38 s
Selected for internal refinement : 432 cells (out of 317376)
Edge intersection testing:
    Number of edges             : 1072112
    Number of edges to retest   : 30184
    Number of intersected edges : 90064
Refined mesh in = 1.29 s
After refinement shell refinement iteration 3 : cells:320400  faces:1072112  points:433899
Cells per refinement level:
    0	11192
    1	20064
    2	203448
    3	9568
    4	25584
    5	50544

Shell refinement iteration 4
----------------------------

Marked for refinement due to distance to explicit features : 0 cells.
Marked for refinement due to refinement shells             : 0 cells.
Determined cells to refine in = 0.43 s
Selected for internal refinement : 304 cells (out of 320400)
Edge intersection testing:
    Number of edges             : 1079000
    Number of edges to retest   : 22144
    Number of intersected edges : 90400
Refined mesh in = 1.34 s
After refinement shell refinement iteration 4 : cells:322528  faces:1079000  points:436483
Cells per refinement level:
    0	11192
    1	20064
    2	203448
    3	9552
    4	25424
    5	52848

Shell refinement iteration 5
----------------------------

Marked for refinement due to distance to explicit features : 0 cells.
Marked for refinement due to refinement shells             : 0 cells.
Determined cells to refine in = 0.42 s
Selected for internal refinement : 208 cells (out of 322528)
Edge intersection testing:
    Number of edges             : 1083368
    Number of edges to retest   : 14048
    Number of intersected edges : 90544
Refined mesh in = 1.3 s
After refinement shell refinement iteration 5 : cells:323984  faces:1083368  points:437915
Cells per refinement level:
    0	11192
    1	20064
    2	203448
    3	9552
    4	25216
    5	54512

Shell refinement iteration 6
----------------------------

Marked for refinement due to distance to explicit features : 0 cells.
Marked for refinement due to refinement shells             : 0 cells.
Determined cells to refine in = 0.38 s
Selected for internal refinement : 48 cells (out of 323984)
Edge intersection testing:
    Number of edges             : 1084472
    Number of edges to retest   : 4608
    Number of intersected edges : 90640
Refined mesh in = 1.23 s
After refinement shell refinement iteration 6 : cells:324320  faces:1084472  points:438347
Cells per refinement level:
    0	11192
    1	20064
    2	203448
    3	9552
    4	25168
    5	54896

Shell refinement iteration 7
----------------------------

Marked for refinement due to distance to explicit features : 0 cells.
Marked for refinement due to refinement shells             : 0 cells.
Determined cells to refine in = 0.38 s
Selected for internal refinement : 0 cells (out of 324320)
Stopping refining since too few cells selected.


Dangling coarse cells refinement iteration 0
--------------------------------------------

Determined cells to refine in = 0.02 s
Selected for refinement : 0 cells (out of 324320)
Stopping refining since too few cells selected.


Dangling coarse cells refinement iteration 0
--------------------------------------------

Determined cells to refine in = 0.01 s
Selected for refinement : 0 cells (out of 324320)
Stopping refining since too few cells selected.


Refinement transition refinement iteration 0
--------------------------------------------

Determined cells to refine in = 0.04 s
Selected for refinement : 80 cells (out of 324320)
Edge intersection testing:
    Number of edges             : 1086536
    Number of edges to retest   : 7024
    Number of intersected edges : 91088
Refined mesh in = 1.28 s
After refinement interface cell refinement iteration 0 : cells:324880  faces:1086536  points:439323
Cells per refinement level:
    0	11192
    1	20064
    2	203416
    3	9776
    4	25408
    5	55024

Refinement transition refinement iteration 1
--------------------------------------------

Determined cells to refine in = 0.03 s
Selected for refinement : 0 cells (out of 324880)
Stopping refining since too few cells selected.


Splitting mesh at surface intersections
---------------------------------------

Introducing baffles for 91088 faces that are intersected by the surface.

Setting cellZones according to locationsInMesh:
Location : (0.05 0.05 1.5)
    cellZone : none

For cellZone none found point (0.05 0.05 1.5) in global region 2 out of 3 regions.
Edge intersection testing:
    Number of edges             : 1177624
    Number of edges to retest   : 586100
    Number of intersected edges : 179264
Created baffles in = 1.86 s


After introducing baffles : cells:324880  faces:1177624  points:439323
Cells per refinement level:
    0	11192
    1	20064
    2	203416
    3	9776
    4	25408
    5	55024

Introducing baffles to block off problem cells
----------------------------------------------

markFacesOnProblemCells : marked 137852 additional internal faces to be converted into baffles.
Analyzed problem cells in = 1.09 s


Introducing baffles to delete problem cells.

Edge intersection testing:
    Number of edges             : 1315476
    Number of edges to retest   : 473076
    Number of intersected edges : 179264
Created baffles in = 1.53 s


After introducing baffles : cells:324880  faces:1315476  points:439323
Cells per refinement level:
    0	11192
    1	20064
    2	203416
    3	9776
    4	25408
    5	55024
Setting cellZones according to locationsInMesh:
Location : (0.05 0.05 1.5)
    cellZone : none

For cellZone none found point (0.05 0.05 1.5) in global region 3 out of 61572 regions.
Edge intersection testing:
    Number of edges             : 1315476
    Number of edges to retest   : 664290
    Number of intersected edges : 179264

Remove unreachable sections of mesh
-----------------------------------

Keeping all cells containing points 1((0.05 0.05 1.5))
Selected for keeping : 189320 cells.
Edge intersection testing:
    Number of edges             : 651616
    Number of edges to retest   : 0
    Number of intersected edges : 89064
Split mesh in = 3.48 s


After subsetting : cells:189320  faces:651616  points:275653
Cells per refinement level:
    0	2944
    1	20064
    2	130672
    3	6240
    4	12328
    5	17072

Introducing zones for interfaces
--------------------------------

Setting cellZones according to locationsInMesh:
Location : (0.05 0.05 1.5)
    cellZone : none

For cellZone none found point (0.05 0.05 1.5) in global region 0 out of 1 regions.
Setting faceZones according to neighbouring cellZones:

Edge intersection testing:
    Number of edges             : 651616
    Number of edges to retest   : 0
    Number of intersected edges : 89064

Handling cells with snap problems
---------------------------------

Introducing baffles for 89064 faces that are intersected by the surface.

Setting cellZones according to locationsInMesh:
Location : (0.05 0.05 1.5)
    cellZone : none

For cellZone none found point (0.05 0.05 1.5) in global region 0 out of 1 regions.
Edge intersection testing:
    Number of edges             : 651616
    Number of edges to retest   : 277320
    Number of intersected edges : 89064
Created baffles in = 1.77 s


After introducing baffles : cells:189320  faces:651616  points:275653
Cells per refinement level:
    0	2944
    1	20064
    2	130672
    3	6240
    4	12328
    5	17072

Introducing baffles to block off problem cells
----------------------------------------------

markFacesOnProblemCells : marked 0 additional internal faces to be converted into baffles.
Analyzed problem cells in = 0.53 s


Introducing baffles to delete problem cells.

Created baffles in = 0.06 s


After introducing baffles : cells:189320  faces:651616  points:275653
Cells per refinement level:
    0	2944
    1	20064
    2	130672
    3	6240
    4	12328
    5	17072
Setting cellZones according to locationsInMesh:
Location : (0.05 0.05 1.5)
    cellZone : none

For cellZone none found point (0.05 0.05 1.5) in global region 0 out of 1 regions.
Edge intersection testing:
    Number of edges             : 651616
    Number of edges to retest   : 277320
    Number of intersected edges : 89064

Remove unreachable sections of mesh
-----------------------------------

Split mesh in = 1.15 s


After subsetting : cells:189320  faces:651616  points:275653
Cells per refinement level:
    0	2944
    1	20064
    2	130672
    3	6240
    4	12328
    5	17072

Merge free-standing baffles
---------------------------

freeStandingBaffles : detected 0 free-standing baffles out of 0

Detected free-standing baffles : 0
Merged free-standing baffles in = 0.34 s


dupNonManifoldPoints : Found : 0 non-manifold points (out of 275653)
Detected unsplittable baffles : 0

Merge refined boundary faces
----------------------------

Merging 1600 sets of faces.

Edge intersection testing:
    Number of edges             : 647520
    Number of edges to retest   : 14600
    Number of intersected edges : 84968

Undo iteration 0
----------------
Checking faces in error :
    non-orthogonality > 65  degrees                        : 0
    faces with face pyramid volume < 1e-13                 : 0
    faces with face-decomposition tet quality < 1e-30      : 0
    faces with concavity > 80  degrees                     : 0
    faces with skewness > 4   (internal) or 20  (boundary) : 0
    faces with interpolation weights (0..1)  < 0.02        : 0
    faces with volume ratio of neighbour cells < 0.01      : 0
    faces with face twist < 0.02                           : 0
    faces on cells with determinant < 0.001                : 0

Merging all points on surface that
- are used by only two boundary faces and
- make an angle with a cosine of more than 0.707107.

Removing 2824 straight edge points ...

Edge intersection testing:
    Number of edges             : 647520
    Number of edges to retest   : 18848
    Number of intersected edges : 84968

Undo iteration 0
----------------
Checking faces in error :
    non-orthogonality > 65  degrees                        : 0
    faces with face pyramid volume < 1e-13                 : 0
    faces with face-decomposition tet quality < 1e-30      : 0
    faces with concavity > 80  degrees                     : 0
    faces with skewness > 4   (internal) or 20  (boundary) : 0
    faces with interpolation weights (0..1)  < 0.02        : 0
    faces with volume ratio of neighbour cells < 0.01      : 0
    faces with face twist < 0.02                           : 0
    faces on cells with determinant < 0.001                : 0
Refined mesh : cells:189320  faces:647520  points:271581
Cells per refinement level:
    0	2944
    1	20064
    2	130672
    3	6240
    4	12328
    5	17072
Writing mesh to time constant
Wrote mesh in = 4.14 s.
Mesh refined in = 42.07 s.

Morphing phase
--------------

Duplicating 0 points on faceZones of type boundary
Snapping to features in 10 iterations ...
Constructing mesh displacer ...
Using mesh parameters 
{
    maxNonOrtho     65;
    maxBoundarySkewness 20;
    maxInternalSkewness 4;
    maxConcave      80;
    minFlatness     0.5;
    minVol          1e-13;
    minTetQuality   1e-30;
    minArea         -1;
    minTwist        0.02;
    minDeterminant  0.001;
    minFaceWeight   0.02;
    minVolRatio     0.01;
    minTriangleTwist -1;
    nSmoothScale    4;
    errorReduction  0.75;
}


Checking initial mesh ...
Checking faces in error :
    non-orthogonality > 65  degrees                        : 0
    faces with face pyramid volume < 1e-13                 : 0
    faces with face-decomposition tet quality < 1e-30      : 0
    faces with concavity > 80  degrees                     : 0
    faces with skewness > 4   (internal) or 20  (boundary) : 0
    faces with interpolation weights (0..1)  < 0.02        : 0
    faces with volume ratio of neighbour cells < 0.01      : 0
    faces with face twist < 0.02                           : 0
    faces on cells with determinant < 0.001                : 0
Detected 0 illegal faces (concave, zero area or negative cell pyramid volume)
Checked initial mesh in = 1.04 s


Smoothing patch points ...
Smoothing iteration 0
Found 0 non-manifold point(s).

Scaling iteration 0
Moving mesh using displacement scaling : min:1  max:1
Checking faces in error :
    non-orthogonality > 65  degrees                        : 0
    faces with face pyramid volume < 1e-13                 : 0
    faces with face-decomposition tet quality < 1e-30      : 0
    faces with concavity > 80  degrees                     : 0
    faces with skewness > 4   (internal) or 20  (boundary) : 0
    faces with interpolation weights (0..1)  < 0.02        : 0
    faces with volume ratio of neighbour cells < 0.01      : 0
    faces with face twist < 0.02                           : 0
    faces on cells with determinant < 0.001                : 0
Successfully moved mesh

Smoothing iteration 1
Found 0 non-manifold point(s).

Scaling iteration 0
Moving mesh using displacement scaling : min:1  max:1
Checking faces in error :
    non-orthogonality > 65  degrees                        : 0
    faces with face pyramid volume < 1e-13                 : 0
    faces with face-decomposition tet quality < 1e-30      : 0
    faces with concavity > 80  degrees                     : 0
    faces with skewness > 4   (internal) or 20  (boundary) : 0
    faces with interpolation weights (0..1)  < 0.02        : 0
    faces with volume ratio of neighbour cells < 0.01      : 0
    faces with face twist < 0.02                           : 0
    faces on cells with determinant < 0.001                : 0
Successfully moved mesh

Smoothing iteration 2
Found 0 non-manifold point(s).

Scaling iteration 0
Moving mesh using displacement scaling : min:1  max:1
Checking faces in error :
    non-orthogonality > 65  degrees                        : 48
    faces with face pyramid volume < 1e-13                 : 0
    faces with face-decomposition tet quality < 1e-30      : 0
    faces with concavity > 80  degrees                     : 0
    faces with skewness > 4   (internal) or 20  (boundary) : 0
    faces with interpolation weights (0..1)  < 0.02        : 0
    faces with volume ratio of neighbour cells < 0.01      : 0
    faces with face twist < 0.02                           : 0
    faces on cells with determinant < 0.001                : 0

Scaling iteration 1
Moving mesh using displacement scaling : min:0.75  max:1
Checking faces in error :
    non-orthogonality > 65  degrees                        : 16
    faces with face pyramid volume < 1e-13                 : 0
    faces with face-decomposition tet quality < 1e-30      : 0
    faces with concavity > 80  degrees                     : 0
    faces with skewness > 4   (internal) or 20  (boundary) : 0
    faces with interpolation weights (0..1)  < 0.02        : 0
    faces with volume ratio of neighbour cells < 0.01      : 0
    faces with face twist < 0.02                           : 0
    faces on cells with determinant < 0.001                : 0

Scaling iteration 2
Moving mesh using displacement scaling : min:0.5625  max:1
Checking faces in error :
    non-orthogonality > 65  degrees                        : 16
    faces with face pyramid volume < 1e-13                 : 0
    faces with face-decomposition tet quality < 1e-30      : 0
    faces with concavity > 80  degrees                     : 0
    faces with skewness > 4   (internal) or 20  (boundary) : 0
    faces with interpolation weights (0..1)  < 0.02        : 0
    faces with volume ratio of neighbour cells < 0.01      : 0
    faces with face twist < 0.02                           : 0
    faces on cells with determinant < 0.001                : 0

Scaling iteration 3
Moving mesh using displacement scaling : min:0.421875  max:1
Checking faces in error :
    non-orthogonality > 65  degrees                        : 16
    faces with face pyramid volume < 1e-13                 : 0
    faces with face-decomposition tet quality < 1e-30      : 0
    faces with concavity > 80  degrees                     : 0
    faces with skewness > 4   (internal) or 20  (boundary) : 0
    faces with interpolation weights (0..1)  < 0.02        : 0
    faces with volume ratio of neighbour cells < 0.01      : 0
    faces with face twist < 0.02                           : 0
    faces on cells with determinant < 0.001                : 0

Scaling iteration 4
Moving mesh using displacement scaling : min:0.316406  max:1
Checking faces in error :
    non-orthogonality > 65  degrees                        : 0
    faces with face pyramid volume < 1e-13                 : 0
    faces with face-decomposition tet quality < 1e-30      : 0
    faces with concavity > 80  degrees                     : 0
    faces with skewness > 4   (internal) or 20  (boundary) : 0
    faces with interpolation weights (0..1)  < 0.02        : 0
    faces with volume ratio of neighbour cells < 0.01      : 0
    faces with face twist < 0.02                           : 0
    faces on cells with determinant < 0.001                : 0
Successfully moved mesh

Patch points smoothed in = 4.61 s



Morph iteration 0
-----------------
Calculating patchDisplacement as distance to nearest surface point ...
    non-zone points : attract to nearest of all non-zone surfaces
    zone points     : attract to zone surface only

--> FOAM Warning : 
    From static Foam::vectorField Foam::snappySnapDriver::calcNearestSurface(bool, const Foam::meshRefinement&, const labelList&, const labelList&, const scalarField&, const indirectPrimitivePatch&, Foam::pointField&, Foam::vectorField&)
    in file snappyHexMeshDriver/snappySnapDriver.C at line 1995
    For point:79284 coordinate:(-0.174788 -0.386007 0.0517464) did not find any surface within:0.05 metre.
--> FOAM Warning : 
    From static Foam::vectorField Foam::snappySnapDriver::calcNearestSurface(bool, const Foam::meshRefinement&, const labelList&, const labelList&, const scalarField&, const indirectPrimitivePatch&, Foam::pointField&, Foam::vectorField&)
    in file snappyHexMeshDriver/snappySnapDriver.C at line 1995
    For point:79285 coordinate:(-0.187113 -0.374455 0.0536336) did not find any surface within:0.05 metre.
--> FOAM Warning : 
    From static Foam::vectorField Foam::snappySnapDriver::calcNearestSurface(bool, const Foam::meshRefinement&, const labelList&, const labelList&, const scalarField&, const indirectPrimitivePatch&, Foam::pointField&, Foam::vectorField&)
    in file snappyHexMeshDriver/snappySnapDriver.C at line 1995
    For point:79398 coordinate:(-0.374455 -0.187113 0.0536336) did not find any surface within:0.05 metre.
--> FOAM Warning : 
    From static Foam::vectorField Foam::snappySnapDriver::calcNearestSurface(bool, const Foam::meshRefinement&, const labelList&, const labelList&, const scalarField&, const indirectPrimitivePatch&, Foam::pointField&, Foam::vectorField&)
    in file snappyHexMeshDriver/snappySnapDriver.C at line 1995
    For point:79399 coordinate:(-0.386007 -0.174788 0.0517464) did not find any surface within:0.05 metre.
--> FOAM Warning : 
    From static Foam::vectorField Foam::snappySnapDriver::calcNearestSurface(bool, const Foam::meshRefinement&, const labelList&, const labelList&, const scalarField&, const indirectPrimitivePatch&, Foam::pointField&, Foam::vectorField&)
    in file snappyHexMeshDriver/snappySnapDriver.C at line 1995
    For point:81970 coordinate:(0.174788 -0.386007 0.0517464) did not find any surface within:0.05 metre.
--> FOAM Warning : 
    From static Foam::vectorField Foam::snappySnapDriver::calcNearestSurface(bool, const Foam::meshRefinement&, const labelList&, const labelList&, const scalarField&, const indirectPrimitivePatch&, Foam::pointField&, Foam::vectorField&)
    in file snappyHexMeshDriver/snappySnapDriver.C at line 1995
    For point:81971 coordinate:(0.187113 -0.374455 0.0536336) did not find any surface within:0.05 metre.
--> FOAM Warning : 
    From static Foam::vectorField Foam::snappySnapDriver::calcNearestSurface(bool, const Foam::meshRefinement&, const labelList&, const labelList&, const scalarField&, const indirectPrimitivePatch&, Foam::pointField&, Foam::vectorField&)
    in file snappyHexMeshDriver/snappySnapDriver.C at line 1995
    For point:82132 coordinate:(0.374455 -0.187113 0.0536336) did not find any surface within:0.05 metre.
--> FOAM Warning : 
    From static Foam::vectorField Foam::snappySnapDriver::calcNearestSurface(bool, const Foam::meshRefinement&, const labelList&, const labelList&, const scalarField&, const indirectPrimitivePatch&, Foam::pointField&, Foam::vectorField&)
    in file snappyHexMeshDriver/snappySnapDriver.C at line 1995
    For point:82133 coordinate:(0.386007 -0.174788 0.0517464) did not find any surface within:0.05 metre.
--> FOAM Warning : 
    From static Foam::vectorField Foam::snappySnapDriver::calcNearestSurface(bool, const Foam::meshRefinement&, const labelList&, const labelList&, const scalarField&, const indirectPrimitivePatch&, Foam::pointField&, Foam::vectorField&)
    in file snappyHexMeshDriver/snappySnapDriver.C at line 1995
    For point:82308 coordinate:(-0.386007 0.174788 0.0517464) did not find any surface within:0.05 metre.
--> FOAM Warning : 
    From static Foam::vectorField Foam::snappySnapDriver::calcNearestSurface(bool, const Foam::meshRefinement&, const labelList&, const labelList&, const scalarField&, const indirectPrimitivePatch&, Foam::pointField&, Foam::vectorField&)
    in file snappyHexMeshDriver/snappySnapDriver.C at line 1995
    For point:82309 coordinate:(-0.374455 0.187113 0.0536336) did not find any surface within:0.05 metre.
--> FOAM Warning : 
    From static Foam::vectorField Foam::snappySnapDriver::calcNearestSurface(bool, const Foam::meshRefinement&, const labelList&, const labelList&, const scalarField&, const indirectPrimitivePatch&, Foam::pointField&, Foam::vectorField&)
    in file snappyHexMeshDriver/snappySnapDriver.C at line 1995
    For point:82365 coordinate:(0.386007 0.174788 0.0517464) did not find any surface within:0.05 metre.
--> FOAM Warning : 
    From static Foam::vectorField Foam::snappySnapDriver::calcNearestSurface(bool, const Foam::meshRefinement&, const labelList&, const labelList&, const scalarField&, const indirectPrimitivePatch&, Foam::pointField&, Foam::vectorField&)
    in file snappyHexMeshDriver/snappySnapDriver.C at line 1995
    For point:82367 coordinate:(0.374455 0.187113 0.0536336) did not find any surface within:0.05 metre.
--> FOAM Warning : 
    From static Foam::vectorField Foam::snappySnapDriver::calcNearestSurface(bool, const Foam::meshRefinement&, const labelList&, const labelList&, const scalarField&, const indirectPrimitivePatch&, Foam::pointField&, Foam::vectorField&)
    in file snappyHexMeshDriver/snappySnapDriver.C at line 1995
    For point:82460 coordinate:(-0.187113 0.374455 0.0536336) did not find any surface within:0.05 metre.
--> FOAM Warning : 
    From static Foam::vectorField Foam::snappySnapDriver::calcNearestSurface(bool, const Foam::meshRefinement&, const labelList&, const labelList&, const scalarField&, const indirectPrimitivePatch&, Foam::pointField&, Foam::vectorField&)
    in file snappyHexMeshDriver/snappySnapDriver.C at line 1995
    For point:82461 coordinate:(-0.174788 0.386007 0.0517464) did not find any surface within:0.05 metre.
--> FOAM Warning : 
    From static Foam::vectorField Foam::snappySnapDriver::calcNearestSurface(bool, const Foam::meshRefinement&, const labelList&, const labelList&, const scalarField&, const indirectPrimitivePatch&, Foam::pointField&, Foam::vectorField&)
    in file snappyHexMeshDriver/snappySnapDriver.C at line 1995
    For point:82491 coordinate:(0.187113 0.374455 0.0536336) did not find any surface within:0.05 metre.
--> FOAM Warning : 
    From static Foam::vectorField Foam::snappySnapDriver::calcNearestSurface(bool, const Foam::meshRefinement&, const labelList&, const labelList&, const scalarField&, const indirectPrimitivePatch&, Foam::pointField&, Foam::vectorField&)
    in file snappyHexMeshDriver/snappySnapDriver.C at line 1995
    For point:82492 coordinate:(0.174788 0.386007 0.0517464) did not find any surface within:0.05 metre.
Wanted displacement : average:0.00392418 min:0 max:0.0635486
Calculated surface displacement in = 0.11 s


Detecting near surfaces ...
Overriding nearest with intersection of close gaps at 0 out of 89562 points.
Overriding displacement on features :
   implicit features    : true
   explicit features    : true
   multi-patch features : false

Detected 0 baffle edges out of 176552 edges.
Baffle points     : 0 of which attracted to :
    feature point : 0
    feature edge  : 0
    rest          : 0

Initially selected 2560 mesh points out of 89562 for reverse attraction.
Selected 8464 mesh points out of 89562 for reverse attraction.
Stringing feature edges : changed 0 points
Attraction:
    linear   : max:(5.55112e-17 -1.38778e-17 -0.0635486) avg:(7.57669e-07 1.45367e-07 -1.10248e-05)
    feature  : max:(0 0 0) avg:(0 0 0)
Feature analysis : total master points :89562 of which attracted to :
    feature point   : 0
    feature edge    : 0
    nearest surface : 0
    rest            : 89562

--> FOAM Warning : Displacement (-4.74186e-08 7.38677e-06 3.60039e-07) at mesh point 173006 coord (0.043693 -0.49899 0.0521492) points through the surrounding patch faces
Smoothing displacement ...
Iteration 0
Iteration 10
Iteration 20
Displacement smoothed in = 2.28 s


Moving mesh ...

Iteration 0
Moving mesh using displacement scaling : min:1  max:1
Checking faces in error :
    non-orthogonality > 65  degrees                        : 0
    faces with face pyramid volume < 1e-13                 : 0
    faces with face-decomposition tet quality < 1e-30      : 0
    faces with concavity > 80  degrees                     : 0
    faces with skewness > 4   (internal) or 20  (boundary) : 0
    faces with interpolation weights (0..1)  < 0.02        : 0
    faces with volume ratio of neighbour cells < 0.01      : 0
    faces with face twist < 0.02                           : 0
    faces on cells with determinant < 0.001                : 0
Successfully moved mesh
Moved mesh in = 0.8 s



Morph iteration 1
-----------------
Calculating patchDisplacement as distance to nearest surface point ...
    non-zone points : attract to nearest of all non-zone surfaces
    zone points     : attract to zone surface only

--> FOAM Warning : 
    From static Foam::vectorField Foam::snappySnapDriver::calcNearestSurface(bool, const Foam::meshRefinement&, const labelList&, const labelList&, const scalarField&, const indirectPrimitivePatch&, Foam::pointField&, Foam::vectorField&)
    in file snappyHexMeshDriver/snappySnapDriver.C at line 1995
    For point:79285 coordinate:(-0.187165 -0.374544 0.0504503) did not find any surface within:0.05 metre.
--> FOAM Warning : 
    From static Foam::vectorField Foam::snappySnapDriver::calcNearestSurface(bool, const Foam::meshRefinement&, const labelList&, const labelList&, const scalarField&, const indirectPrimitivePatch&, Foam::pointField&, Foam::vectorField&)
    in file snappyHexMeshDriver/snappySnapDriver.C at line 1995
    For point:79398 coordinate:(-0.374544 -0.187165 0.0504503) did not find any surface within:0.05 metre.
--> FOAM Warning : 
    From static Foam::vectorField Foam::snappySnapDriver::calcNearestSurface(bool, const Foam::meshRefinement&, const labelList&, const labelList&, const scalarField&, const indirectPrimitivePatch&, Foam::pointField&, Foam::vectorField&)
    in file snappyHexMeshDriver/snappySnapDriver.C at line 1995
    For point:81971 coordinate:(0.187165 -0.374544 0.0504503) did not find any surface within:0.05 metre.
--> FOAM Warning : 
    From static Foam::vectorField Foam::snappySnapDriver::calcNearestSurface(bool, const Foam::meshRefinement&, const labelList&, const labelList&, const scalarField&, const indirectPrimitivePatch&, Foam::pointField&, Foam::vectorField&)
    in file snappyHexMeshDriver/snappySnapDriver.C at line 1995
    For point:82132 coordinate:(0.374544 -0.187165 0.0504503) did not find any surface within:0.05 metre.
--> FOAM Warning : 
    From static Foam::vectorField Foam::snappySnapDriver::calcNearestSurface(bool, const Foam::meshRefinement&, const labelList&, const labelList&, const scalarField&, const indirectPrimitivePatch&, Foam::pointField&, Foam::vectorField&)
    in file snappyHexMeshDriver/snappySnapDriver.C at line 1995
    For point:82309 coordinate:(-0.374544 0.187165 0.0504503) did not find any surface within:0.05 metre.
--> FOAM Warning : 
    From static Foam::vectorField Foam::snappySnapDriver::calcNearestSurface(bool, const Foam::meshRefinement&, const labelList&, const labelList&, const scalarField&, const indirectPrimitivePatch&, Foam::pointField&, Foam::vectorField&)
    in file snappyHexMeshDriver/snappySnapDriver.C at line 1995
    For point:82367 coordinate:(0.374544 0.187165 0.0504503) did not find any surface within:0.05 metre.
--> FOAM Warning : 
    From static Foam::vectorField Foam::snappySnapDriver::calcNearestSurface(bool, const Foam::meshRefinement&, const labelList&, const labelList&, const scalarField&, const indirectPrimitivePatch&, Foam::pointField&, Foam::vectorField&)
    in file snappyHexMeshDriver/snappySnapDriver.C at line 1995
    For point:82460 coordinate:(-0.187165 0.374544 0.0504503) did not find any surface within:0.05 metre.
--> FOAM Warning : 
    From static Foam::vectorField Foam::snappySnapDriver::calcNearestSurface(bool, const Foam::meshRefinement&, const labelList&, const labelList&, const scalarField&, const indirectPrimitivePatch&, Foam::pointField&, Foam::vectorField&)
    in file snappyHexMeshDriver/snappySnapDriver.C at line 1995
    For point:82491 coordinate:(0.187165 0.374544 0.0504503) did not find any surface within:0.05 metre.
Wanted displacement : average:0.00366931 min:0 max:0.0578306
Calculated surface displacement in = 0.11 s


Detecting near surfaces ...
Overriding nearest with intersection of close gaps at 0 out of 89562 points.
Overriding displacement on features :
   implicit features    : true
   explicit features    : true
   multi-patch features : false

Detected 0 baffle edges out of 176552 edges.
Baffle points     : 0 of which attracted to :
    feature point : 0
    feature edge  : 0
    rest          : 0

Initially selected 2560 mesh points out of 89562 for reverse attraction.
Selected 8480 mesh points out of 89562 for reverse attraction.
Stringing feature edges : changed 0 points
Attraction:
    linear   : max:(0 2.77556e-17 -0.0578306) avg:(6.9216e-07 1.65665e-07 -1.4659e-05)
    feature  : max:(0 0 0) avg:(0 0 0)
Feature analysis : total master points :89562 of which attracted to :
    feature point   : 0
    feature edge    : 0
    nearest surface : 0
    rest            : 89562

--> FOAM Warning : Displacement (-1.57631e-05 1.24265e-05 -3.90551e-07) at mesh point 50528 coord (0.315937 -0.390684 0.301881) points through the surrounding patch faces
Smoothing displacement ...
Iteration 0
Iteration 10
Iteration 20
Displacement smoothed in = 2.18 s


Moving mesh ...

Iteration 0
Moving mesh using displacement scaling : min:1  max:1
Checking faces in error :
    non-orthogonality > 65  degrees                        : 16
    faces with face pyramid volume < 1e-13                 : 0
    faces with face-decomposition tet quality < 1e-30      : 0
    faces with concavity > 80  degrees                     : 0
    faces with skewness > 4   (internal) or 20  (boundary) : 0
    faces with interpolation weights (0..1)  < 0.02        : 0
    faces with volume ratio of neighbour cells < 0.01      : 0
    faces with face twist < 0.02                           : 0
    faces on cells with determinant < 0.001                : 0

Iteration 1
Moving mesh using displacement scaling : min:0.75  max:1
Checking faces in error :
    non-orthogonality > 65  degrees                        : 0
    faces with face pyramid volume < 1e-13                 : 0
    faces with face-decomposition tet quality < 1e-30      : 0
    faces with concavity > 80  degrees                     : 0
    faces with skewness > 4   (internal) or 20  (boundary) : 0
    faces with interpolation weights (0..1)  < 0.02        : 0
    faces with volume ratio of neighbour cells < 0.01      : 0
    faces with face twist < 0.02                           : 0
    faces on cells with determinant < 0.001                : 0
Successfully moved mesh
Moved mesh in = 1.13 s



Morph iteration 2
-----------------
Calculating patchDisplacement as distance to nearest surface point ...
    non-zone points : attract to nearest of all non-zone surfaces
    zone points     : attract to zone surface only

Wanted displacement : average:0.00317207 min:3.26573e-08 max:0.0478005
Calculated surface displacement in = 0.11 s


Detecting near surfaces ...
Overriding nearest with intersection of close gaps at 0 out of 89562 points.
Overriding displacement on features :
   implicit features    : true
   explicit features    : true
   multi-patch features : false

Detected 0 baffle edges out of 176552 edges.
Baffle points     : 0 of which attracted to :
    feature point : 0
    feature edge  : 0
    rest          : 0

Initially selected 2560 mesh points out of 89562 for reverse attraction.
Selected 8512 mesh points out of 89562 for reverse attraction.
Stringing feature edges : changed 0 points
Attraction:
    linear   : max:(1.38778e-17 0 0.0478005) avg:(5.71223e-07 1.96579e-07 -1.60915e-05)
    feature  : max:(0 0 0) avg:(0 0 0)
Feature analysis : total master points :89562 of which attracted to :
    feature point   : 0
    feature edge    : 0
    nearest surface : 0
    rest            : 89562

--> FOAM Warning : Displacement (-4.12153e-05 6.91074e-05 -9.31297e-08) at mesh point 172679 coord (0.310405 -0.394371 0.263932) points through the surrounding patch faces
Smoothing displacement ...
Iteration 0
Iteration 10
Iteration 20
Displacement smoothed in = 2.14 s


Moving mesh ...

Iteration 0
Moving mesh using displacement scaling : min:1  max:1
Checking faces in error :
    non-orthogonality > 65  degrees                        : 80
    faces with face pyramid volume < 1e-13                 : 0
    faces with face-decomposition tet quality < 1e-30      : 0
    faces with concavity > 80  degrees                     : 0
    faces with skewness > 4   (internal) or 20  (boundary) : 0
    faces with interpolation weights (0..1)  < 0.02        : 0
    faces with volume ratio of neighbour cells < 0.01      : 0
    faces with face twist < 0.02                           : 0
    faces on cells with determinant < 0.001                : 0

Iteration 1
Moving mesh using displacement scaling : min:0.75  max:1
Checking faces in error :
    non-orthogonality > 65  degrees                        : 64
    faces with face pyramid volume < 1e-13                 : 0
    faces with face-decomposition tet quality < 1e-30      : 0
    faces with concavity > 80  degrees                     : 0
    faces with skewness > 4   (internal) or 20  (boundary) : 0
    faces with interpolation weights (0..1)  < 0.02        : 0
    faces with volume ratio of neighbour cells < 0.01      : 0
    faces with face twist < 0.02                           : 0
    faces on cells with determinant < 0.001                : 0

Iteration 2
Moving mesh using displacement scaling : min:0.5625  max:1
Checking faces in error :
    non-orthogonality > 65  degrees                        : 48
    faces with face pyramid volume < 1e-13                 : 0
    faces with face-decomposition tet quality < 1e-30      : 0
    faces with concavity > 80  degrees                     : 0
    faces with skewness > 4   (internal) or 20  (boundary) : 0
    faces with interpolation weights (0..1)  < 0.02        : 0
    faces with volume ratio of neighbour cells < 0.01      : 0
    faces with face twist < 0.02                           : 0
    faces on cells with determinant < 0.001                : 0

Iteration 3
Moving mesh using displacement scaling : min:0.421875  max:1
Checking faces in error :
    non-orthogonality > 65  degrees                        : 48
    faces with face pyramid volume < 1e-13                 : 0
    faces with face-decomposition tet quality < 1e-30      : 0
    faces with concavity > 80  degrees                     : 0
    faces with skewness > 4   (internal) or 20  (boundary) : 0
    faces with interpolation weights (0..1)  < 0.02        : 0
    faces with volume ratio of neighbour cells < 0.01      : 0
    faces with face twist < 0.02                           : 0
    faces on cells with determinant < 0.001                : 0

Iteration 4
Moving mesh using displacement scaling : min:0.316406  max:1
Checking faces in error :
    non-orthogonality > 65  degrees                        : 24
    faces with face pyramid volume < 1e-13                 : 0
    faces with face-decomposition tet quality < 1e-30      : 0
    faces with concavity > 80  degrees                     : 0
    faces with skewness > 4   (internal) or 20  (boundary) : 0
    faces with interpolation weights (0..1)  < 0.02        : 0
    faces with volume ratio of neighbour cells < 0.01      : 0
    faces with face twist < 0.02                           : 0
    faces on cells with determinant < 0.001                : 0

Iteration 5
Displacement scaling for error reduction set to 0.
Moving mesh using displacement scaling : min:0.237305  max:1
Checking faces in error :
    non-orthogonality > 65  degrees                        : 16
    faces with face pyramid volume < 1e-13                 : 0
    faces with face-decomposition tet quality < 1e-30      : 0
    faces with concavity > 80  degrees                     : 0
    faces with skewness > 4   (internal) or 20  (boundary) : 0
    faces with interpolation weights (0..1)  < 0.02        : 0
    faces with volume ratio of neighbour cells < 0.01      : 0
    faces with face twist < 0.02                           : 0
    faces on cells with determinant < 0.001                : 0

Iteration 6
Moving mesh using displacement scaling : min:0  max:1
Checking faces in error :
    non-orthogonality > 65  degrees                        : 0
    faces with face pyramid volume < 1e-13                 : 0
    faces with face-decomposition tet quality < 1e-30      : 0
    faces with concavity > 80  degrees                     : 0
    faces with skewness > 4   (internal) or 20  (boundary) : 0
    faces with interpolation weights (0..1)  < 0.02        : 0
    faces with volume ratio of neighbour cells < 0.01      : 0
    faces with face twist < 0.02                           : 0
    faces on cells with determinant < 0.001                : 0
Successfully moved mesh
Moved mesh in = 3.3 s



Morph iteration 3
-----------------
Calculating patchDisplacement as distance to nearest surface point ...
    non-zone points : attract to nearest of all non-zone surfaces
    zone points     : attract to zone surface only

Wanted displacement : average:0.00251755 min:1.55617e-07 max:0.0354672
Calculated surface displacement in = 0.12 s


Detecting near surfaces ...
Overriding nearest with intersection of close gaps at 0 out of 89562 points.
Overriding displacement on features :
   implicit features    : true
   explicit features    : true
   multi-patch features : false

Detected 0 baffle edges out of 176552 edges.
Baffle points     : 0 of which attracted to :
    feature point : 0
    feature edge  : 0
    rest          : 0

Initially selected 2560 mesh points out of 89562 for reverse attraction.
Selected 8552 mesh points out of 89562 for reverse attraction.
Stringing feature edges : changed 0 points
Attraction:
    linear   : max:(-2.77556e-17 0 0.0354672) avg:(4.21182e-07 2.23386e-07 -1.12704e-05)
    feature  : max:(0 0 0) avg:(0 0 0)
Feature analysis : total master points :89562 of which attracted to :
    feature point   : 0
    feature edge    : 0
    nearest surface : 0
    rest            : 89562

--> FOAM Warning : Displacement (-0.000130863 0.000198937 2.31002e-07) at mesh point 172679 coord (0.310364 -0.394302 0.263932) points through the surrounding patch faces
Smoothing displacement ...
Iteration 0
Iteration 10
Iteration 20
Displacement smoothed in = 2.17 s


Moving mesh ...

Iteration 0
Moving mesh using displacement scaling : min:1  max:1
Checking faces in error :
    non-orthogonality > 65  degrees                        : 144
    faces with face pyramid volume < 1e-13                 : 0
    faces with face-decomposition tet quality < 1e-30      : 0
    faces with concavity > 80  degrees                     : 0
    faces with skewness > 4   (internal) or 20  (boundary) : 0
    faces with interpolation weights (0..1)  < 0.02        : 0
    faces with volume ratio of neighbour cells < 0.01      : 0
    faces with face twist < 0.02                           : 0
    faces on cells with determinant < 0.001                : 0

Iteration 1
Moving mesh using displacement scaling : min:0.75  max:1
Checking faces in error :
    non-orthogonality > 65  degrees                        : 128
    faces with face pyramid volume < 1e-13                 : 0
    faces with face-decomposition tet quality < 1e-30      : 0
    faces with concavity > 80  degrees                     : 0
    faces with skewness > 4   (internal) or 20  (boundary) : 0
    faces with interpolation weights (0..1)  < 0.02        : 0
    faces with volume ratio of neighbour cells < 0.01      : 0
    faces with face twist < 0.02                           : 0
    faces on cells with determinant < 0.001                : 0

Iteration 2
Moving mesh using displacement scaling : min:0.5625  max:1
Checking faces in error :
    non-orthogonality > 65  degrees                        : 112
    faces with face pyramid volume < 1e-13                 : 0
    faces with face-decomposition tet quality < 1e-30      : 0
    faces with concavity > 80  degrees                     : 0
    faces with skewness > 4   (internal) or 20  (boundary) : 0
    faces with interpolation weights (0..1)  < 0.02        : 0
    faces with volume ratio of neighbour cells < 0.01      : 0
    faces with face twist < 0.02                           : 0
    faces on cells with determinant < 0.001                : 0

Iteration 3
Moving mesh using displacement scaling : min:0.421875  max:1
Checking faces in error :
    non-orthogonality > 65  degrees                        : 96
    faces with face pyramid volume < 1e-13                 : 0
    faces with face-decomposition tet quality < 1e-30      : 0
    faces with concavity > 80  degrees                     : 0
    faces with skewness > 4   (internal) or 20  (boundary) : 0
    faces with interpolation weights (0..1)  < 0.02        : 0
    faces with volume ratio of neighbour cells < 0.01      : 0
    faces with face twist < 0.02                           : 0
    faces on cells with determinant < 0.001                : 0

Iteration 4
Moving mesh using displacement scaling : min:0.316406  max:1
Checking faces in error :
    non-orthogonality > 65  degrees                        : 96
    faces with face pyramid volume < 1e-13                 : 0
    faces with face-decomposition tet quality < 1e-30      : 0
    faces with concavity > 80  degrees                     : 0
    faces with skewness > 4   (internal) or 20  (boundary) : 0
    faces with interpolation weights (0..1)  < 0.02        : 0
    faces with volume ratio of neighbour cells < 0.01      : 0
    faces with face twist < 0.02                           : 0
    faces on cells with determinant < 0.001                : 0

Iteration 5
Displacement scaling for error reduction set to 0.
Moving mesh using displacement scaling : min:0.237305  max:1
Checking faces in error :
    non-orthogonality > 65  degrees                        : 80
    faces with face pyramid volume < 1e-13                 : 0
    faces with face-decomposition tet quality < 1e-30      : 0
    faces with concavity > 80  degrees                     : 0
    faces with skewness > 4   (internal) or 20  (boundary) : 0
    faces with interpolation weights (0..1)  < 0.02        : 0
    faces with volume ratio of neighbour cells < 0.01      : 0
    faces with face twist < 0.02                           : 0
    faces on cells with determinant < 0.001                : 0

Iteration 6
Moving mesh using displacement scaling : min:0  max:1
Checking faces in error :
    non-orthogonality > 65  degrees                        : 0
    faces with face pyramid volume < 1e-13                 : 0
    faces with face-decomposition tet quality < 1e-30      : 0
    faces with concavity > 80  degrees                     : 0
    faces with skewness > 4   (internal) or 20  (boundary) : 0
    faces with interpolation weights (0..1)  < 0.02        : 0
    faces with volume ratio of neighbour cells < 0.01      : 0
    faces with face twist < 0.02                           : 0
    faces on cells with determinant < 0.001                : 0
Successfully moved mesh
Moved mesh in = 3.72 s



Morph iteration 4
-----------------
Calculating patchDisplacement as distance to nearest surface point ...
    non-zone points : attract to nearest of all non-zone surfaces
    zone points     : attract to zone surface only

Wanted displacement : average:0.00189098 min:1.77915e-08 max:0.0238492
Calculated surface displacement in = 0.11 s


Detecting near surfaces ...
Overriding nearest with intersection of close gaps at 0 out of 89562 points.
Overriding displacement on features :
   implicit features    : true
   explicit features    : true
   multi-patch features : false

Detected 0 baffle edges out of 176552 edges.
Baffle points     : 0 of which attracted to :
    feature point : 0
    feature edge  : 0
    rest          : 0

Initially selected 2560 mesh points out of 89562 for reverse attraction.
Selected 8592 mesh points out of 89562 for reverse attraction.
Stringing feature edges : changed 0 points
Attraction:
    linear   : max:(5.55112e-17 0 -0.0238492) avg:(2.74264e-07 2.30057e-07 -6.72808e-06)
    feature  : max:(0 0 0) avg:(0 0 0)
Feature analysis : total master points :89562 of which attracted to :
    feature point   : 0
    feature edge    : 0
    nearest surface : 0
    rest            : 89562

--> FOAM Warning : Displacement (2.52604e-05 1.0383e-05 -1.992e-07) at mesh point 50482 coord (-0.0751382 -0.495192 0.277225) points through the surrounding patch faces
Smoothing displacement ...
Iteration 0
Iteration 10
Iteration 20
Displacement smoothed in = 2.18 s


Moving mesh ...

Iteration 0
Moving mesh using displacement scaling : min:1  max:1
Checking faces in error :
    non-orthogonality > 65  degrees                        : 208
    faces with face pyramid volume < 1e-13                 : 0
    faces with face-decomposition tet quality < 1e-30      : 32
    faces with concavity > 80  degrees                     : 0
    faces with skewness > 4   (internal) or 20  (boundary) : 0
    faces with interpolation weights (0..1)  < 0.02        : 0
    faces with volume ratio of neighbour cells < 0.01      : 0
    faces with face twist < 0.02                           : 0
    faces on cells with determinant < 0.001                : 0

Iteration 1
Moving mesh using displacement scaling : min:0.75  max:1
Checking faces in error :
    non-orthogonality > 65  degrees                        : 208
    faces with face pyramid volume < 1e-13                 : 0
    faces with face-decomposition tet quality < 1e-30      : 0
    faces with concavity > 80  degrees                     : 0
    faces with skewness > 4   (internal) or 20  (boundary) : 0
    faces with interpolation weights (0..1)  < 0.02        : 0
    faces with volume ratio of neighbour cells < 0.01      : 0
    faces with face twist < 0.02                           : 0
    faces on cells with determinant < 0.001                : 0

Iteration 2
Moving mesh using displacement scaling : min:0.5625  max:1
Checking faces in error :
    non-orthogonality > 65  degrees                        : 192
    faces with face pyramid volume < 1e-13                 : 0
    faces with face-decomposition tet quality < 1e-30      : 0
    faces with concavity > 80  degrees                     : 0
    faces with skewness > 4   (internal) or 20  (boundary) : 0
    faces with interpolation weights (0..1)  < 0.02        : 0
    faces with volume ratio of neighbour cells < 0.01      : 0
    faces with face twist < 0.02                           : 0
    faces on cells with determinant < 0.001                : 0

Iteration 3
Moving mesh using displacement scaling : min:0.421875  max:1
Checking faces in error :
    non-orthogonality > 65  degrees                        : 176
    faces with face pyramid volume < 1e-13                 : 0
    faces with face-decomposition tet quality < 1e-30      : 0
    faces with concavity > 80  degrees                     : 0
    faces with skewness > 4   (internal) or 20  (boundary) : 0
    faces with interpolation weights (0..1)  < 0.02        : 0
    faces with volume ratio of neighbour cells < 0.01      : 0
    faces with face twist < 0.02                           : 0
    faces on cells with determinant < 0.001                : 0

Iteration 4
Moving mesh using displacement scaling : min:0.316406  max:1
Checking faces in error :
    non-orthogonality > 65  degrees                        : 184
    faces with face pyramid volume < 1e-13                 : 0
    faces with face-decomposition tet quality < 1e-30      : 0
    faces with concavity > 80  degrees                     : 0
    faces with skewness > 4   (internal) or 20  (boundary) : 0
    faces with interpolation weights (0..1)  < 0.02        : 0
    faces with volume ratio of neighbour cells < 0.01      : 0
    faces with face twist < 0.02                           : 0
    faces on cells with determinant < 0.001                : 0

Iteration 5
Displacement scaling for error reduction set to 0.
Moving mesh using displacement scaling : min:0.237305  max:1
Checking faces in error :
    non-orthogonality > 65  degrees                        : 168
    faces with face pyramid volume < 1e-13                 : 0
    faces with face-decomposition tet quality < 1e-30      : 8
    faces with concavity > 80  degrees                     : 0
    faces with skewness > 4   (internal) or 20  (boundary) : 0
    faces with interpolation weights (0..1)  < 0.02        : 0
    faces with volume ratio of neighbour cells < 0.01      : 0
    faces with face twist < 0.02                           : 0
    faces on cells with determinant < 0.001                : 0

Iteration 6
Moving mesh using displacement scaling : min:0  max:1
Checking faces in error :
    non-orthogonality > 65  degrees                        : 16
    faces with face pyramid volume < 1e-13                 : 0
    faces with face-decomposition tet quality < 1e-30      : 0
    faces with concavity > 80  degrees                     : 0
    faces with skewness > 4   (internal) or 20  (boundary) : 0
    faces with interpolation weights (0..1)  < 0.02        : 0
    faces with volume ratio of neighbour cells < 0.01      : 0
    faces with face twist < 0.02                           : 0
    faces on cells with determinant < 0.001                : 0

Iteration 7
Moving mesh using displacement scaling : min:0  max:1
Checking faces in error :
    non-orthogonality > 65  degrees                        : 0
    faces with face pyramid volume < 1e-13                 : 0
    faces with face-decomposition tet quality < 1e-30      : 0
    faces with concavity > 80  degrees                     : 0
    faces with skewness > 4   (internal) or 20  (boundary) : 0
    faces with interpolation weights (0..1)  < 0.02        : 0
    faces with volume ratio of neighbour cells < 0.01      : 0
    faces with face twist < 0.02                           : 0
    faces on cells with determinant < 0.001                : 0
Successfully moved mesh
Moved mesh in = 4.57 s



Morph iteration 5
-----------------
Calculating patchDisplacement as distance to nearest surface point ...
    non-zone points : attract to nearest of all non-zone surfaces
    zone points     : attract to zone surface only

Wanted displacement : average:0.00128162 min:1.77915e-08 max:0.0155901
Calculated surface displacement in = 0.11 s


Detecting near surfaces ...
Overriding nearest with intersection of close gaps at 0 out of 89562 points.
Overriding displacement on features :
   implicit features    : true
   explicit features    : true
   multi-patch features : false

Detected 0 baffle edges out of 176552 edges.
Baffle points     : 0 of which attracted to :
    feature point : 0
    feature edge  : 0
    rest          : 0

Initially selected 2560 mesh points out of 89562 for reverse attraction.
Selected 8648 mesh points out of 89562 for reverse attraction.
Stringing feature edges : changed 0 points
Attraction:
    linear   : max:(5.55112e-17 0 -0.0155901) avg:(1.5522e-07 2.03226e-07 -3.3035e-06)
    feature  : max:(0 0 0) avg:(0 0 0)
Feature analysis : total master points :89562 of which attracted to :
    feature point   : 0
    feature edge    : 0
    nearest surface : 0
    rest            : 89562

--> FOAM Warning : Displacement (5.97196e-05 0.000169616 3.37699e-07) at mesh point 50482 coord (-0.0751382 -0.495192 0.277225) points through the surrounding patch faces
Smoothing displacement ...
Iteration 0
Iteration 10
Iteration 20
Displacement smoothed in = 2.16 s


Moving mesh ...

Iteration 0
Moving mesh using displacement scaling : min:1  max:1
Checking faces in error :
    non-orthogonality > 65  degrees                        : 432
    faces with face pyramid volume < 1e-13                 : 0
    faces with face-decomposition tet quality < 1e-30      : 32
    faces with concavity > 80  degrees                     : 0
    faces with skewness > 4   (internal) or 20  (boundary) : 0
    faces with interpolation weights (0..1)  < 0.02        : 0
    faces with volume ratio of neighbour cells < 0.01      : 0
    faces with face twist < 0.02                           : 0
    faces on cells with determinant < 0.001                : 0

Iteration 1
Moving mesh using displacement scaling : min:0.75  max:1
Checking faces in error :
    non-orthogonality > 65  degrees                        : 384
    faces with face pyramid volume < 1e-13                 : 0
    faces with face-decomposition tet quality < 1e-30      : 32
    faces with concavity > 80  degrees                     : 0
    faces with skewness > 4   (internal) or 20  (boundary) : 0
    faces with interpolation weights (0..1)  < 0.02        : 0
    faces with volume ratio of neighbour cells < 0.01      : 0
    faces with face twist < 0.02                           : 0
    faces on cells with determinant < 0.001                : 0

Iteration 2
Moving mesh using displacement scaling : min:0.5625  max:1
Checking faces in error :
    non-orthogonality > 65  degrees                        : 368
    faces with face pyramid volume < 1e-13                 : 0
    faces with face-decomposition tet quality < 1e-30      : 16
    faces with concavity > 80  degrees                     : 0
    faces with skewness > 4   (internal) or 20  (boundary) : 0
    faces with interpolation weights (0..1)  < 0.02        : 0
    faces with volume ratio of neighbour cells < 0.01      : 0
    faces with face twist < 0.02                           : 0
    faces on cells with determinant < 0.001                : 0

Iteration 3
Moving mesh using displacement scaling : min:0.421875  max:1
Checking faces in error :
    non-orthogonality > 65  degrees                        : 336
    faces with face pyramid volume < 1e-13                 : 0
    faces with face-decomposition tet quality < 1e-30      : 16
    faces with concavity > 80  degrees                     : 0
    faces with skewness > 4   (internal) or 20  (boundary) : 0
    faces with interpolation weights (0..1)  < 0.02        : 0
    faces with volume ratio of neighbour cells < 0.01      : 0
    faces with face twist < 0.02                           : 0
    faces on cells with determinant < 0.001                : 0

Iteration 4
Moving mesh using displacement scaling : min:0.316406  max:1
Checking faces in error :
    non-orthogonality > 65  degrees                        : 320
    faces with face pyramid volume < 1e-13                 : 0
    faces with face-decomposition tet quality < 1e-30      : 16
    faces with concavity > 80  degrees                     : 0
    faces with skewness > 4   (internal) or 20  (boundary) : 0
    faces with interpolation weights (0..1)  < 0.02        : 0
    faces with volume ratio of neighbour cells < 0.01      : 0
    faces with face twist < 0.02                           : 0
    faces on cells with determinant < 0.001                : 0

Iteration 5
Displacement scaling for error reduction set to 0.
Moving mesh using displacement scaling : min:0.237305  max:1
Checking faces in error :
    non-orthogonality > 65  degrees                        : 312
    faces with face pyramid volume < 1e-13                 : 0
    faces with face-decomposition tet quality < 1e-30      : 16
    faces with concavity > 80  degrees                     : 0
    faces with skewness > 4   (internal) or 20  (boundary) : 0
    faces with interpolation weights (0..1)  < 0.02        : 0
    faces with volume ratio of neighbour cells < 0.01      : 0
    faces with face twist < 0.02                           : 0
    faces on cells with determinant < 0.001                : 0

Iteration 6
Moving mesh using displacement scaling : min:0  max:1
Checking faces in error :
    non-orthogonality > 65  degrees                        : 14
    faces with face pyramid volume < 1e-13                 : 0
    faces with face-decomposition tet quality < 1e-30      : 0
    faces with concavity > 80  degrees                     : 0
    faces with skewness > 4   (internal) or 20  (boundary) : 0
    faces with interpolation weights (0..1)  < 0.02        : 0
    faces with volume ratio of neighbour cells < 0.01      : 0
    faces with face twist < 0.02                           : 0
    faces on cells with determinant < 0.001                : 0

Iteration 7
Moving mesh using displacement scaling : min:0  max:1
Checking faces in error :
    non-orthogonality > 65  degrees                        : 0
    faces with face pyramid volume < 1e-13                 : 0
    faces with face-decomposition tet quality < 1e-30      : 0
    faces with concavity > 80  degrees                     : 0
    faces with skewness > 4   (internal) or 20  (boundary) : 0
    faces with interpolation weights (0..1)  < 0.02        : 0
    faces with volume ratio of neighbour cells < 0.01      : 0
    faces with face twist < 0.02                           : 0
    faces on cells with determinant < 0.001                : 0
Successfully moved mesh
Moved mesh in = 5.44 s



Morph iteration 6
-----------------
Calculating patchDisplacement as distance to nearest surface point ...
    non-zone points : attract to nearest of all non-zone surfaces
    zone points     : attract to zone surface only

Wanted displacement : average:0.000796197 min:1.49061e-08 max:0.0155901
Calculated surface displacement in = 0.11 s


Detecting near surfaces ...
Overriding nearest with intersection of close gaps at 0 out of 89562 points.
Overriding displacement on features :
   implicit features    : true
   explicit features    : true
   multi-patch features : false

Detected 0 baffle edges out of 176552 edges.
Baffle points     : 0 of which attracted to :
    feature point : 0
    feature edge  : 0
    rest          : 0

Initially selected 2544 mesh points out of 89562 for reverse attraction.
Selected 8670 mesh points out of 89562 for reverse attraction.
Stringing feature edges : changed 0 points
Attraction:
    linear   : max:(5.55112e-17 0 -0.0155901) avg:(8.88073e-08 1.47752e-07 5.05968e-08)
    feature  : max:(0 0 0) avg:(0 0 0)
Feature analysis : total master points :89562 of which attracted to :
    feature point   : 0
    feature edge    : 0
    nearest surface : 0
    rest            : 89562

--> FOAM Warning : Displacement (9.87758e-05 0.000338726 1.40221e-06) at mesh point 50482 coord (-0.0751382 -0.495192 0.277225) points through the surrounding patch faces
Smoothing displacement ...
Iteration 0
Iteration 10
Iteration 20
Displacement smoothed in = 2.22 s


Moving mesh ...

Iteration 0
Moving mesh using displacement scaling : min:1  max:1
Checking faces in error :
    non-orthogonality > 65  degrees                        : 480
    faces with face pyramid volume < 1e-13                 : 0
    faces with face-decomposition tet quality < 1e-30      : 32
    faces with concavity > 80  degrees                     : 0
    faces with skewness > 4   (internal) or 20  (boundary) : 0
    faces with interpolation weights (0..1)  < 0.02        : 0
    faces with volume ratio of neighbour cells < 0.01      : 0
    faces with face twist < 0.02                           : 0
    faces on cells with determinant < 0.001                : 0

Iteration 1
Moving mesh using displacement scaling : min:0.75  max:1
Checking faces in error :
    non-orthogonality > 65  degrees                        : 464
    faces with face pyramid volume < 1e-13                 : 0
    faces with face-decomposition tet quality < 1e-30      : 32
    faces with concavity > 80  degrees                     : 0
    faces with skewness > 4   (internal) or 20  (boundary) : 0
    faces with interpolation weights (0..1)  < 0.02        : 0
    faces with volume ratio of neighbour cells < 0.01      : 0
    faces with face twist < 0.02                           : 0
    faces on cells with determinant < 0.001                : 0

Iteration 2
Moving mesh using displacement scaling : min:0.5625  max:1
Checking faces in error :
    non-orthogonality > 65  degrees                        : 432
    faces with face pyramid volume < 1e-13                 : 0
    faces with face-decomposition tet quality < 1e-30      : 24
    faces with concavity > 80  degrees                     : 0
    faces with skewness > 4   (internal) or 20  (boundary) : 0
    faces with interpolation weights (0..1)  < 0.02        : 0
    faces with volume ratio of neighbour cells < 0.01      : 0
    faces with face twist < 0.02                           : 0
    faces on cells with determinant < 0.001                : 0

Iteration 3
Moving mesh using displacement scaling : min:0.421875  max:1
Checking faces in error :
    non-orthogonality > 65  degrees                        : 418
    faces with face pyramid volume < 1e-13                 : 0
    faces with face-decomposition tet quality < 1e-30      : 16
    faces with concavity > 80  degrees                     : 0
    faces with skewness > 4   (internal) or 20  (boundary) : 0
    faces with interpolation weights (0..1)  < 0.02        : 0
    faces with volume ratio of neighbour cells < 0.01      : 0
    faces with face twist < 0.02                           : 0
    faces on cells with determinant < 0.001                : 0

Iteration 4
Moving mesh using displacement scaling : min:0.316406  max:1
Checking faces in error :
    non-orthogonality > 65  degrees                        : 418
    faces with face pyramid volume < 1e-13                 : 0
    faces with face-decomposition tet quality < 1e-30      : 16
    faces with concavity > 80  degrees                     : 0
    faces with skewness > 4   (internal) or 20  (boundary) : 0
    faces with interpolation weights (0..1)  < 0.02        : 0
    faces with volume ratio of neighbour cells < 0.01      : 0
    faces with face twist < 0.02                           : 0
    faces on cells with determinant < 0.001                : 0

Iteration 5
Displacement scaling for error reduction set to 0.
Moving mesh using displacement scaling : min:0.237305  max:1
Checking faces in error :
    non-orthogonality > 65  degrees                        : 418
    faces with face pyramid volume < 1e-13                 : 0
    faces with face-decomposition tet quality < 1e-30      : 16
    faces with concavity > 80  degrees                     : 0
    faces with skewness > 4   (internal) or 20  (boundary) : 0
    faces with interpolation weights (0..1)  < 0.02        : 0
    faces with volume ratio of neighbour cells < 0.01      : 0
    faces with face twist < 0.02                           : 0
    faces on cells with determinant < 0.001                : 0

Iteration 6
Moving mesh using displacement scaling : min:0  max:1
Checking faces in error :
    non-orthogonality > 65  degrees                        : 0
    faces with face pyramid volume < 1e-13                 : 0
    faces with face-decomposition tet quality < 1e-30      : 0
    faces with concavity > 80  degrees                     : 0
    faces with skewness > 4   (internal) or 20  (boundary) : 0
    faces with interpolation weights (0..1)  < 0.02        : 0
    faces with volume ratio of neighbour cells < 0.01      : 0
    faces with face twist < 0.02                           : 0
    faces on cells with determinant < 0.001                : 0
Successfully moved mesh
Moved mesh in = 5.16 s



Morph iteration 7
-----------------
Calculating patchDisplacement as distance to nearest surface point ...
    non-zone points : attract to nearest of all non-zone surfaces
    zone points     : attract to zone surface only

Wanted displacement : average:0.000435711 min:1.77915e-08 max:0.0155901
Calculated surface displacement in = 0.11 s


Detecting near surfaces ...
Overriding nearest with intersection of close gaps at 0 out of 89562 points.
Overriding displacement on features :
   implicit features    : true
   explicit features    : true
   multi-patch features : false

Detected 0 baffle edges out of 176552 edges.
Baffle points     : 0 of which attracted to :
    feature point : 0
    feature edge  : 0
    rest          : 0

Initially selected 2544 mesh points out of 89562 for reverse attraction.
Selected 8688 mesh points out of 89562 for reverse attraction.
Stringing feature edges : changed 0 points
Attraction:
    linear   : max:(5.55112e-17 0 -0.0155901) avg:(3.12674e-08 7.99239e-08 2.08562e-06)
    feature  : max:(0 0 0) avg:(0 0 0)
Feature analysis : total master points :89562 of which attracted to :
    feature point   : 0
    feature edge    : 0
    nearest surface : 0
    rest            : 89562

--> FOAM Warning : Displacement (0.00014049 0.000510799 2.59508e-06) at mesh point 50482 coord (-0.0751382 -0.495192 0.277225) points through the surrounding patch faces
Smoothing displacement ...
Iteration 0
Iteration 10
Iteration 20
Displacement smoothed in = 2.15 s


Moving mesh ...

Iteration 0
Moving mesh using displacement scaling : min:1  max:1
Checking faces in error :
    non-orthogonality > 65  degrees                        : 568
    faces with face pyramid volume < 1e-13                 : 0
    faces with face-decomposition tet quality < 1e-30      : 32
    faces with concavity > 80  degrees                     : 0
    faces with skewness > 4   (internal) or 20  (boundary) : 0
    faces with interpolation weights (0..1)  < 0.02        : 0
    faces with volume ratio of neighbour cells < 0.01      : 0
    faces with face twist < 0.02                           : 0
    faces on cells with determinant < 0.001                : 0

Iteration 1
Moving mesh using displacement scaling : min:0.75  max:1
Checking faces in error :
    non-orthogonality > 65  degrees                        : 546
    faces with face pyramid volume < 1e-13                 : 0
    faces with face-decomposition tet quality < 1e-30      : 32
    faces with concavity > 80  degrees                     : 0
    faces with skewness > 4   (internal) or 20  (boundary) : 0
    faces with interpolation weights (0..1)  < 0.02        : 0
    faces with volume ratio of neighbour cells < 0.01      : 0
    faces with face twist < 0.02                           : 0
    faces on cells with determinant < 0.001                : 0

Iteration 2
Moving mesh using displacement scaling : min:0.5625  max:1
Checking faces in error :
[...]
Checking faces in error :
    non-orthogonality > 65  degrees                        : 472
    faces with face pyramid volume < 1e-13                 : 0
    faces with face-decomposition tet quality < 1e-30      : 16
    faces with concavity > 80  degrees                     : 0
    faces with skewness > 4   (internal) or 20  (boundary) : 0
    faces with interpolation weights (0..1)  < 0.02        : 0
    faces with volume ratio of neighbour cells < 0.01      : 0
    faces with face twist < 0.02                           : 0
    faces on cells with determinant < 0.001                : 0

Iteration 5
Displacement scaling for error reduction set to 0.
Moving mesh using displacement scaling : min:0.237305  max:1
Checking faces in error :
    non-orthogonality > 65  degrees                        : 472
    faces with face pyramid volume < 1e-13                 : 0
    faces with face-decomposition tet quality < 1e-30      : 16
    faces with concavity > 80  degrees                     : 0
    faces with skewness > 4   (internal) or 20  (boundary) : 0
    faces with interpolation weights (0..1)  < 0.02        : 0
    faces with volume ratio of neighbour cells < 0.01      : 0
    faces with face twist < 0.02                           : 0
    faces on cells with determinant < 0.001                : 0

Iteration 6
Moving mesh using displacement scaling : min:0  max:1
Checking faces in error :
    non-orthogonality > 65  degrees                        : 0
    faces with face pyramid volume < 1e-13                 : 0
    faces with face-decomposition tet quality < 1e-30      : 0
    faces with concavity > 80  degrees                     : 16
    faces with skewness > 4   (internal) or 20  (boundary) : 0
    faces with interpolation weights (0..1)  < 0.02        : 0
    faces with volume ratio of neighbour cells < 0.01      : 0
    faces with face twist < 0.02                           : 0
    faces on cells with determinant < 0.001                : 0

Iteration 7
Moving mesh using displacement scaling : min:0  max:1
Checking faces in error :
    non-orthogonality > 65  degrees                        : 0
    faces with face pyramid volume < 1e-13                 : 0
    faces with face-decomposition tet quality < 1e-30      : 0
    faces with concavity > 80  degrees                     : 0
    faces with skewness > 4   (internal) or 20  (boundary) : 0
    faces with interpolation weights (0..1)  < 0.02        : 0
    faces with volume ratio of neighbour cells < 0.01      : 0
    faces with face twist < 0.02                           : 0
    faces on cells with determinant < 0.001                : 0
Successfully moved mesh
Moved mesh in = 5.54 s



Morph iteration 8
-----------------
Calculating patchDisplacement as distance to nearest surface point ...
    non-zone points : attract to nearest of all non-zone surfaces
    zone points     : attract to zone surface only

Wanted displacement : average:0.000221398 min:3.7633e-09 max:0.0155901
Calculated surface displacement in = 0.11 s


Detecting near surfaces ...
Overriding nearest with intersection of close gaps at 0 out of 89562 points.
Overriding displacement on features :
   implicit features    : true
   explicit features    : true
   multi-patch features : false

Detected 0 baffle edges out of 176552 edges.
Baffle points     : 0 of which attracted to :
    feature point : 0
    feature edge  : 0
    rest          : 0

Initially selected 2544 mesh points out of 89562 for reverse attraction.
Selected 8688 mesh points out of 89562 for reverse attraction.
Stringing feature edges : changed 0 points
Attraction:
    linear   : max:(5.55112e-17 0 -0.0155901) avg:(1.06984e-08 2.43517e-08 6.32745e-06)
    feature  : max:(0 0 0) avg:(0 0 0)
Feature analysis : total master points :89562 of which attracted to :
    feature point   : 0
    feature edge    : 0
    nearest surface : 0
    rest            : 89562

--> FOAM Warning : Displacement (0.000186395 0.000694163 3.83653e-06) at mesh point 50482 coord (-0.0751382 -0.495192 0.277225) points through the surrounding patch faces
Smoothing displacement ...
Iteration 0
Iteration 10
Iteration 20
Displacement smoothed in = 2.19 s


Moving mesh ...

Iteration 0
Moving mesh using displacement scaling : min:1  max:1
Checking faces in error :
    non-orthogonality > 65  degrees                        : 584
    faces with face pyramid volume < 1e-13                 : 0
    faces with face-decomposition tet quality < 1e-30      : 32
    faces with concavity > 80  degrees                     : 0
    faces with skewness > 4   (internal) or 20  (boundary) : 0
    faces with interpolation weights (0..1)  < 0.02        : 0
    faces with volume ratio of neighbour cells < 0.01      : 0
    faces with face twist < 0.02                           : 0
    faces on cells with determinant < 0.001                : 0

Iteration 1
Moving mesh using displacement scaling : min:0.75  max:1
Checking faces in error :
    non-orthogonality > 65  degrees                        : 568
    faces with face pyramid volume < 1e-13                 : 0
    faces with face-decomposition tet quality < 1e-30      : 32
    faces with concavity > 80  degrees                     : 0
    faces with skewness > 4   (internal) or 20  (boundary) : 0
    faces with interpolation weights (0..1)  < 0.02        : 0
    faces with volume ratio of neighbour cells < 0.01      : 0
    faces with face twist < 0.02                           : 0
    faces on cells with determinant < 0.001                : 0

Iteration 2
Moving mesh using displacement scaling : min:0.5625  max:1
Checking faces in error :
    non-orthogonality > 65  degrees                        : 568
    faces with face pyramid volume < 1e-13                 : 0
    faces with face-decomposition tet quality < 1e-30      : 32
    faces with concavity > 80  degrees                     : 0
    faces with skewness > 4   (internal) or 20  (boundary) : 0
    faces with interpolation weights (0..1)  < 0.02        : 0
    faces with volume ratio of neighbour cells < 0.01      : 0
    faces with face twist < 0.02                           : 0
    faces on cells with determinant < 0.001                : 0

Iteration 3
Moving mesh using displacement scaling : min:0.421875  max:1
Checking faces in error :
    non-orthogonality > 65  degrees                        : 536
    faces with face pyramid volume < 1e-13                 : 0
    faces with face-decomposition tet quality < 1e-30      : 32
    faces with concavity > 80  degrees                     : 0
    faces with skewness > 4   (internal) or 20  (boundary) : 0
    faces with interpolation weights (0..1)  < 0.02        : 0
    faces with volume ratio of neighbour cells < 0.01      : 0
    faces with face twist < 0.02                           : 0
    faces on cells with determinant < 0.001                : 0

Iteration 4
Moving mesh using displacement scaling : min:0.316406  max:1
Checking faces in error :
    non-orthogonality > 65  degrees                        : 536
    faces with face pyramid volume < 1e-13                 : 0
    faces with face-decomposition tet quality < 1e-30      : 16
    faces with concavity > 80  degrees                     : 0
    faces with skewness > 4   (internal) or 20  (boundary) : 0
    faces with interpolation weights (0..1)  < 0.02        : 0
    faces with volume ratio of neighbour cells < 0.01      : 0
    faces with face twist < 0.02                           : 0
    faces on cells with determinant < 0.001                : 0

Iteration 5
Displacement scaling for error reduction set to 0.
Moving mesh using displacement scaling : min:0.237305  max:1
Checking faces in error :
    non-orthogonality > 65  degrees                        : 536
    faces with face pyramid volume < 1e-13                 : 0
    faces with face-decomposition tet quality < 1e-30      : 16
    faces with concavity > 80  degrees                     : 0
    faces with skewness > 4   (internal) or 20  (boundary) : 0
    faces with interpolation weights (0..1)  < 0.02        : 0
    faces with volume ratio of neighbour cells < 0.01      : 0
    faces with face twist < 0.02                           : 0
    faces on cells with determinant < 0.001                : 0

Iteration 6
Moving mesh using displacement scaling : min:0  max:1
Checking faces in error :
    non-orthogonality > 65  degrees                        : 0
    faces with face pyramid volume < 1e-13                 : 0
    faces with face-decomposition tet quality < 1e-30      : 0
    faces with concavity > 80  degrees                     : 0
    faces with skewness > 4   (internal) or 20  (boundary) : 0
    faces with interpolation weights (0..1)  < 0.02        : 0
    faces with volume ratio of neighbour cells < 0.01      : 0
    faces with face twist < 0.02                           : 0
    faces on cells with determinant < 0.001                : 0
Successfully moved mesh
Moved mesh in = 5.22 s



Morph iteration 9
-----------------
Calculating patchDisplacement as distance to nearest surface point ...
    non-zone points : attract to nearest of all non-zone surfaces
    zone points     : attract to zone surface only

Wanted displacement : average:0.000128675 min:2.40585e-10 max:0.0155901
Calculated surface displacement in = 0.12 s


Detecting near surfaces ...
Overriding nearest with intersection of close gaps at 0 out of 89562 points.
Overriding displacement on features :
   implicit features    : true
   explicit features    : true
   multi-patch features : false

Detected 0 baffle edges out of 176552 edges.
Baffle points     : 0 of which attracted to :
    feature point : 0
    feature edge  : 0
    rest          : 0

Initially selected 2544 mesh points out of 89562 for reverse attraction.
Selected 8696 mesh points out of 89562 for reverse attraction.
Stringing feature edges : changed 0 points
Attraction:
    linear   : max:(5.55112e-17 0 -0.0155901) avg:(3.89466e-09 -4.68881e-09 5.68029e-06)
    feature  : max:(0 0 0) avg:(0 0 0)
Feature analysis : total master points :89562 of which attracted to :
    feature point   : 0
    feature edge    : 0
    nearest surface : 0
    rest            : 89562

--> FOAM Warning : Displacement (0.000122137 0.000926107 -5.55112e-17) at mesh point 50482 coord (-0.0751382 -0.495192 0.277225) points through the surrounding patch faces
Smoothing displacement ...
Iteration 0
Iteration 10
Iteration 20
Displacement smoothed in = 1.74 s


Moving mesh ...

Iteration 0
Moving mesh using displacement scaling : min:1  max:1
Checking faces in error :
    non-orthogonality > 65  degrees                        : 592
    faces with face pyramid volume < 1e-13                 : 0
    faces with face-decomposition tet quality < 1e-30      : 32
    faces with concavity > 80  degrees                     : 0
    faces with skewness > 4   (internal) or 20  (boundary) : 0
    faces with interpolation weights (0..1)  < 0.02        : 0
    faces with volume ratio of neighbour cells < 0.01      : 0
    faces with face twist < 0.02                           : 0
    faces on cells with determinant < 0.001                : 0

Iteration 1
Moving mesh using displacement scaling : min:0.75  max:1
Checking faces in error :
    non-orthogonality > 65  degrees                        : 624
    faces with face pyramid volume < 1e-13                 : 0
    faces with face-decomposition tet quality < 1e-30      : 32
    faces with concavity > 80  degrees                     : 0
    faces with skewness > 4   (internal) or 20  (boundary) : 0
    faces with interpolation weights (0..1)  < 0.02        : 0
    faces with volume ratio of neighbour cells < 0.01      : 0
    faces with face twist < 0.02                           : 0
    faces on cells with determinant < 0.001                : 0

Iteration 2
Moving mesh using displacement scaling : min:0.5625  max:1
Checking faces in error :
    non-orthogonality > 65  degrees                        : 608
    faces with face pyramid volume < 1e-13                 : 0
    faces with face-decomposition tet quality < 1e-30      : 32
    faces with concavity > 80  degrees                     : 0
    faces with skewness > 4   (internal) or 20  (boundary) : 0
    faces with interpolation weights (0..1)  < 0.02        : 0
    faces with volume ratio of neighbour cells < 0.01      : 0
    faces with face twist < 0.02                           : 0
    faces on cells with determinant < 0.001                : 0

Iteration 3
Moving mesh using displacement scaling : min:0.421875  max:1
Checking faces in error :
    non-orthogonality > 65  degrees                        : 600
    faces with face pyramid volume < 1e-13                 : 0
    faces with face-decomposition tet quality < 1e-30      : 32
    faces with concavity > 80  degrees                     : 0
    faces with skewness > 4   (internal) or 20  (boundary) : 0
    faces with interpolation weights (0..1)  < 0.02        : 0
    faces with volume ratio of neighbour cells < 0.01      : 0
    faces with face twist < 0.02                           : 0
    faces on cells with determinant < 0.001                : 0

Iteration 4
Moving mesh using displacement scaling : min:0.316406  max:1
Checking faces in error :
    non-orthogonality > 65  degrees                        : 584
    faces with face pyramid volume < 1e-13                 : 0
    faces with face-decomposition tet quality < 1e-30      : 16
    faces with concavity > 80  degrees                     : 0
    faces with skewness > 4   (internal) or 20  (boundary) : 0
    faces with interpolation weights (0..1)  < 0.02        : 0
    faces with volume ratio of neighbour cells < 0.01      : 0
    faces with face twist < 0.02                           : 0
    faces on cells with determinant < 0.001                : 0

Iteration 5
Displacement scaling for error reduction set to 0.
Moving mesh using displacement scaling : min:0.237305  max:1
Checking faces in error :
    non-orthogonality > 65  degrees                        : 600
    faces with face pyramid volume < 1e-13                 : 0
    faces with face-decomposition tet quality < 1e-30      : 16
    faces with concavity > 80  degrees                     : 0
    faces with skewness > 4   (internal) or 20  (boundary) : 0
    faces with interpolation weights (0..1)  < 0.02        : 0
    faces with volume ratio of neighbour cells < 0.01      : 0
    faces with face twist < 0.02                           : 0
    faces on cells with determinant < 0.001                : 0

Iteration 6
Moving mesh using displacement scaling : min:0  max:1
Checking faces in error :
    non-orthogonality > 65  degrees                        : 0
    faces with face pyramid volume < 1e-13                 : 0
    faces with face-decomposition tet quality < 1e-30      : 0
    faces with concavity > 80  degrees                     : 16
    faces with skewness > 4   (internal) or 20  (boundary) : 0
    faces with interpolation weights (0..1)  < 0.02        : 0
    faces with volume ratio of neighbour cells < 0.01      : 0
    faces with face twist < 0.02                           : 0
    faces on cells with determinant < 0.001                : 0

Iteration 7
Moving mesh using displacement scaling : min:0  max:1
Checking faces in error :
    non-orthogonality > 65  degrees                        : 0
    faces with face pyramid volume < 1e-13                 : 0
    faces with face-decomposition tet quality < 1e-30      : 0
    faces with concavity > 80  degrees                     : 0
    faces with skewness > 4   (internal) or 20  (boundary) : 0
    faces with interpolation weights (0..1)  < 0.02        : 0
    faces with volume ratio of neighbour cells < 0.01      : 0
    faces with face twist < 0.02                           : 0
    faces on cells with determinant < 0.001                : 0
Successfully moved mesh
Moved mesh in = 5.64 s


Repatching faces according to nearest surface ...
Repatched 0 faces in = 0.75 s


Edge intersection testing:
    Number of edges             : 647520
    Number of edges to retest   : 276424
    Number of intersected edges : 86832
Merging 23584 sets of faces.

Edge intersection testing:
    Number of edges             : 622216
    Number of edges to retest   : 95184
    Number of intersected edges : 60992

Undo iteration 0
----------------
Checking faces in error :
    non-orthogonality > 65  degrees                        : 128
    faces with face pyramid volume < 1e-13                 : 0
    faces with face-decomposition tet quality < 1e-30      : 0
    faces with concavity > 80  degrees                     : 0
    faces with skewness > 4   (internal) or 20  (boundary) : 0
    faces with interpolation weights (0..1)  < 0.02        : 0
    faces with volume ratio of neighbour cells < 0.01      : 0
    faces with face twist < 0.02                           : 0
    faces on cells with determinant < 0.001                : 0
Masters that need to be restored:128
Edge intersection testing:
    Number of edges             : 622384
    Number of edges to retest   : 896
    Number of intersected edges : 61160


Undo iteration 1
----------------
Checking faces in error :
    non-orthogonality > 65  degrees                        : 0
    faces with face pyramid volume < 1e-13                 : 0
    faces with face-decomposition tet quality < 1e-30      : 0
    faces with concavity > 80  degrees                     : 0
    faces with skewness > 4   (internal) or 20  (boundary) : 0
    faces with interpolation weights (0..1)  < 0.02        : 0
    faces with volume ratio of neighbour cells < 0.01      : 0
    faces with face twist < 0.02                           : 0
    faces on cells with determinant < 0.001                : 0

Merging all points on surface that
- are used by only two boundary faces and
- make an angle with a cosine of more than 0.5.

Removing 22488 straight edge points ...

Edge intersection testing:
    Number of edges             : 622384
    Number of edges to retest   : 94432
    Number of intersected edges : 60344

Undo iteration 0
----------------
Checking faces in error :
    non-orthogonality > 65  degrees                        : 2
    faces with face pyramid volume < 1e-13                 : 0
    faces with face-decomposition tet quality < 1e-30      : 0
    faces with concavity > 80  degrees                     : 0
    faces with skewness > 4   (internal) or 20  (boundary) : 0
    faces with interpolation weights (0..1)  < 0.02        : 0
    faces with volume ratio of neighbour cells < 0.01      : 0
    faces with face twist < 0.02                           : 0
    faces on cells with determinant < 0.001                : 0
Detected 0 error faces on boundaries that have been merged. These will be restored to their original faces.

Detected 2 error faces in mesh. Restoring neighbours of faces in error.

Edge intersection testing:
    Number of edges             : 622384
    Number of edges to retest   : 106
    Number of intersected edges : 60344
Snapped mesh : cells:189320  faces:622384  points:247417
Cells per refinement level:
    0	2944
    1	20064
    2	130672
    3	6240
    4	12328
    5	17072
Writing mesh to time constant
Wrote mesh in = 7.23 s.
Mesh snapped in = 76.68 s.
Checking final mesh ...
Checking faces in error :
    non-orthogonality > 65  degrees                        : 0
    faces with face pyramid volume < 1e-13                 : 0
    faces with face-decomposition tet quality < 1e-30      : 0
    faces with concavity > 80  degrees                     : 0
    faces with skewness > 4   (internal) or 20  (boundary) : 0
    faces with interpolation weights (0..1)  < 0.02        : 0
    faces with volume ratio of neighbour cells < 0.01      : 0
    faces with face twist < 0.02                           : 0
    faces on cells with determinant < 0.001                : 0
Finished meshing without any errors
Finished meshing in = 119.71 s.
End

